*****
* RK6-44B_Zabordin_VFX.LIB
* Generated by the Micro-Cap Model program Version 12.2.0.0.
*****

.MODEL KD202K D (BV=400 CJO=56.36p IS=10f M=300m RL=1G RS=1m TT=5u VJ=5)
;$SpiceType=PSPICE
