*****
* RK6-44B_Zabordin_VAX.LIB
* Generated by the Micro-Cap Model program Version 12.2.0.0.
*****

.MODEL KD202V D (BV=150 CJO=5p IS=4.183n N=1.565 RL=1G RS=42.799m TT=5u VJ=750m)
;$SpiceType=PSPICE
